54
Lattice="9.450121 0.0 0.0 0.0 9.450121 0.0 0.0 0.0 9.450121" Properties=species:S:1:pos:R:3:REF_forces:R:3 REF_energy=-581.6806102 REF_stress="-0.04777978844915124 0.0013461936543070047 0.003775264175918251 0.0013461936543070047 -0.04701428607938904 -0.000545926078713631 0.003775264175918251 -0.000545926078713631 -0.04783508197849744" pbc="T T T"
Mo       9.42896218       0.04433997       0.11151143       0.65748785      -0.28864427      -1.84893675
Mo       9.30500494       0.03552300       3.19005845       2.09722726      -0.91296716      -0.29415063
Mo       9.44246640       0.00707814       6.31533631       0.65563088      -0.14080055      -0.18287363
Mo       9.38346930       3.18007912       0.02675329       1.26930592       0.01934864      -0.37475849
Mo       9.42630670       3.14201403       3.15200281       0.13167307      -0.51922075       0.00858145
Mo       0.00996988       3.16433522       6.41465708       0.09849057       0.32694928      -1.87384252
Mo       9.40970283       6.36859719       9.38755175       0.84183545      -1.07741626       0.56028755
Mo       9.36695994       6.15362584       3.07955818       1.12196976       2.03699782       0.52075135
Mo       9.41614782       6.33942467       6.32473918       0.45314683      -0.58908718      -1.53356622
Mo       3.05388220       9.43628602       0.11750280       1.26218024      -0.07754766      -1.90818053
Mo       3.11122554       9.44221125       3.18061777       0.35654818      -0.12618272      -0.18483900
Mo       3.11391882       0.05518871       6.29486735       0.31799464      -0.83850645       0.23754962
Mo       3.11678221       3.14753290       0.08104424       0.65487466      -0.56992470      -1.01376075
Mo       3.14536882       3.11403222       3.24841294      -0.02302530       0.26458353      -1.20195509
Mo       3.07461577       3.13965150       6.33369790       1.21681973       0.59359657      -0.17623466
Mo       3.15155865       6.28037086       0.01451539       0.11935181       0.00620064      -0.66749340
Mo       3.13864979       6.34360162       3.13535170       0.13038620      -0.85521977      -0.08963650
Mo       3.02979384       6.36656542       6.27807448       1.27727550      -0.81193946      -0.04174854
Mo       6.28148598       9.41354903       0.12843659       0.37568111       0.73119649      -2.27935764
Mo       6.29093610       0.06392062       3.17278362      -0.08718597      -0.67883705       0.27561103
Mo       6.23784532       0.05856240       6.39359276       0.83587697      -0.74660824      -0.65532741
Mo       6.30450647       3.15765398       0.13422007      -0.10816171      -0.32938912      -1.58450083
Mo       6.21697945       3.18163839       3.25939398       1.19255791      -0.36410461      -0.99206155
Mo       6.27126095       3.22317167       6.41521464       0.48539094      -1.02923028      -1.14432025
Mo       6.28802546       6.31804850       0.12113165       0.56474317      -0.18854431      -2.49661231
Mo       6.23136254       6.34933785       3.07562693       0.82305197      -0.24587757       1.44779196
Mo       6.20919255       6.24508411       6.31199097       0.97846454       1.38636365      -0.43454647
Mo       1.61409957       1.47918019       1.58937805      -0.69594514       1.06434159       0.31823786
Mo       1.55979917       1.58629731       4.73202524       0.22771166      -0.47301070      -0.21097413
Mo       1.62190537       1.57816076       7.81883166      -0.29229881      -0.16167634       1.33838967
Mo       1.64069221       4.61023208       1.53948141      -0.90048903       0.92359320       0.39266387
Mo       1.54817552       4.65126451       4.64066147       0.26514167       1.05226863       1.00030125
Mo       1.67180201       4.72851924       7.88179782      -0.92377615       0.03921539      -0.08401430
Mo       1.62359694       7.76110087       1.47988895      -0.57405831       0.73009968       1.28828048
Mo       1.61613134       7.84627481       4.58711708      -1.09154939       0.18694825       1.11196193
Mo       1.55690743       7.87435112       7.85750156       0.73275395       0.30540229      -0.21867905
Mo       4.72867045       1.50274879       1.57651644       0.04810667       0.90274334       0.19729354
Mo       4.77140389       1.58000353       4.67828240      -0.51906641       0.15524600       1.06219562
Mo       4.72862320       1.56875789       7.81691329       0.09976292       0.09937650       1.22406109
Mo       4.74485850       4.69609588       1.50354260      -0.41331322       0.10114042       1.43537446
Mo       4.71999524       4.74304408       4.68444388      -0.37946355       0.14588509       0.55012242
Mo       4.84689146       4.72108200       7.88888541      -1.55432716      -0.12345968       0.02631137
Mo       4.81073530       7.86720683       1.50210618      -1.29013495       0.12099855       1.48118600
Mo       4.76481716       7.94435762       4.73729841      -0.58697758      -0.65249706      -0.37260661
Mo       4.72318938       7.79926046       7.85584779       0.03432660       1.04680380       0.23848352
Mo       7.92886887       1.61003602       1.50038626      -1.00593155       0.03876320       1.38473542
Mo       7.96715131       1.48655128       4.76802075      -1.64740234       1.78712208      -0.42629715
Mo       8.02175411       1.61065972       7.79670893      -2.06375258      -0.28957061       1.59491331
Mo       7.87329271       4.76493056       1.52431397      -0.10774975      -0.58516623       0.20479846
Mo       7.90791795       4.68356502       4.60758605      -0.79124035       0.39378527       1.37974946
Mo       7.93894270       4.80027401       7.77275287      -0.57972698      -0.70047878       1.32862436
Mo       7.96811522       7.92627954       1.50038626      -1.23573625      -0.63053845       1.24688748
Mo       7.85419402       7.91242566       4.75161534      -0.03226226      -0.98386079      -0.75988474
Mo       8.01981684       7.87398257       7.78690915      -2.42219391       0.53133685       1.19601464