54
Lattice="9.450121 0.0 0.0 0.0 9.450121 0.0 0.0 0.0 9.450121" Properties=species:S:1:pos:R:3
Mo 9.42896 0.04434 0.111511
Mo 9.305 0.035523 3.19006
Mo 9.44247 0.00707814 6.31534
Mo 9.38347 3.18008 0.0267533
Mo 9.42631 3.14201 3.152
Mo 0.00996988 3.16434 6.41466
Mo 9.4097 6.3686 9.38755
Mo 9.36696 6.15363 3.07956
Mo 9.41615 6.33942 6.32474
Mo 3.05388 9.43629 0.117503
Mo 3.11123 9.44221 3.18062
Mo 3.11392 0.0551887 6.29487
Mo 3.11678 3.14753 0.0810442
Mo 3.14537 3.11403 3.24841
Mo 3.07462 3.13965 6.3337
Mo 3.15156 6.28037 0.0145154
Mo 3.13865 6.3436 3.13535
Mo 3.02979 6.36657 6.27807
Mo 6.28149 9.41355 0.128437
Mo 6.29094 0.0639206 3.17278
Mo 6.23785 0.0585624 6.39359
Mo 6.30451 3.15765 0.13422
Mo 6.21698 3.18164 3.25939
Mo 6.27126 3.22317 6.41521
Mo 6.28803 6.31805 0.121132
Mo 6.23136 6.34934 3.07563
Mo 6.20919 6.24508 6.31199
Mo 1.6141 1.47918 1.58938
Mo 1.5598 1.5863 4.73203
Mo 1.62191 1.57816 7.81883
Mo 1.64069 4.61023 1.53948
Mo 1.54818 4.65126 4.64066
Mo 1.6718 4.72852 7.8818
Mo 1.6236 7.7611 1.47989
Mo 1.61613 7.84627 4.58712
Mo 1.55691 7.87435 7.8575
Mo 4.72867 1.50275 1.57652
Mo 4.7714 1.58 4.67828
Mo 4.72862 1.56876 7.81691
Mo 4.74486 4.6961 1.50354
Mo 4.72 4.74304 4.68444
Mo 4.84689 4.72108 7.88889
Mo 4.81074 7.86721 1.50211
Mo 4.76482 7.94436 4.7373
Mo 4.72319 7.79926 7.85585
Mo 7.92887 1.61004 1.50039
Mo 7.96715 1.48655 4.76802
Mo 8.02175 1.61066 7.79671
Mo 7.87329 4.76493 1.52431
Mo 7.90792 4.68357 4.60759
Mo 7.93894 4.80027 7.77275
Mo 7.96812 7.92628 1.50039
Mo 7.85419 7.91243 4.75162
Mo 8.01982 7.87398 7.78691
